25
mepyrid_optsp_a0m2.out
N          0.64311       -1.16048       -0.96183
C          1.91126       -0.68997       -0.72223
C          3.01285       -1.33153       -1.32912
C          4.30409       -0.87891       -1.10555
C          4.53349        0.23417       -0.26444
C          3.47405        0.88338        0.34411
C          2.14136        0.44363        0.13462
N          1.11804        1.10106        0.74606
C         -0.34733       -0.51958       -0.36639
C         -0.11978        0.62816        0.50167
C         -1.22748        1.25232        1.09545
N         -2.50908        0.80838        0.87770
C         -2.73494       -0.27212        0.06195
C         -1.71196       -0.93406       -0.55303
C         -3.61623        1.50622        1.53030
H         -3.50558        1.45959        2.61918
H         -4.55853        1.03272        1.25002
H         -3.63994        2.55590        1.21789
H         -1.91704       -1.78512       -1.19336
H          2.81234       -2.18460       -1.97147
H          5.14476       -1.38046       -1.57797
H          5.55003        0.58083       -0.09585
H          3.62790        1.74034        0.99403
H         -1.10272        2.10856        1.74720
H         -3.77235       -0.56141       -0.05976